%nprocshared=20
%mem=12GB
%chk=ovalene ground opt freq disp.chk
# opt=tight freq=(hpmodes,savenormalmodes) b3lyp/6-311++g(2d,2p) geom=connectivity empiricaldispersion=gd3bj

Ovalene ground state optimization + freq with dispersion

0 1
 C                 -0.00000000    0.71136445    2.45758128
 C                 -0.00000000    1.42238707    1.22448752
 C                 -0.00000000    0.71556822   -0.00000005
 C                 -0.00000000   -0.71556822   -0.00000005
 C                 -0.00000000   -1.42238707    1.22448752
 C                 -0.00000000   -0.71136445    2.45758128
 C                 -0.00000000    1.42238703   -1.22448743
 C                 -0.00000000   -1.42238703   -1.22448743
 C                  0.00000000   -0.71136440   -2.45758127
 C                  0.00000000    0.71136440   -2.45758127
 C                  0.00000000   -1.41885815   -3.68626672
 C                  0.00000000   -2.84840201   -3.65488839
 C                  0.00000000   -3.53227647   -2.47952221
 C                  0.00000000   -2.85003184   -1.22079783
 C                  0.00000000   -3.52947129   -0.00000013
 C                  0.00000000   -2.85003176    1.22079797
 H                  0.00000000   -4.61240620    0.00000006
 H                  0.00000000   -3.38447140   -4.59513483
 H                  0.00000000   -4.61446085   -2.47914939
 C                  0.00000000    2.85003176    1.22079797
 C                  0.00000000    3.52947129   -0.00000013
 C                  0.00000000    2.85003184   -1.22079783
 H                  0.00000000    4.61240620    0.00000006
 C                  0.00000000    3.53227647   -2.47952221
 C                  0.00000000    2.84840201   -3.65488839
 C                  0.00000000    1.41885815   -3.68626672
 H                  0.00000000    4.61446085   -2.47914939
 H                  0.00000000    3.38447140   -4.59513483
 C                 -0.00000000   -0.68793489   -4.89297136
 H                 -0.00000000   -1.22797688   -5.83086260
 C                  0.00000000    0.68793489   -4.89297136
 H                  0.00000000    1.22797688   -5.83086260
 C                  0.00000000   -3.53227637    2.47952198
 C                  0.00000000   -2.84840180    3.65488840
 H                  0.00000000   -3.38447154    4.59513463
 C                  0.00000000   -1.41885828    3.68626668
 H                  0.00000000   -4.61446074    2.47914957
 C                  0.00000000   -0.68793474    4.89297152
 H                  0.00000000   -1.22797691    5.83086266
 C                  0.00000000    1.41885828    3.68626668
 C                  0.00000000    3.53227637    2.47952198
 C                  0.00000000    2.84840180    3.65488840
 H                  0.00000000    3.38447154    4.59513463
 C                  0.00000000    0.68793474    4.89297152
 H                  0.00000000    1.22797691    5.83086266
 H                  0.00000000    4.61446074    2.47914957

 1 2 1.5 6 1.5 40 1.5
 2 3 1.5 20 1.5
 3 4 1.5 7 1.5
 4 5 1.5 8 1.5
 5 6 1.5 16 1.5
 6 36 1.5
 7 10 1.5 22 1.5
 8 9 1.5 14 1.5
 9 10 1.5 11 1.5
 10 26 1.5
 11 12 1.5 29 1.5
 12 13 2.0 18 1.0
 13 14 1.5 19 1.0
 14 15 1.5
 15 16 1.5 17 1.0
 16 33 1.5
 17
 18
 19
 20 21 1.5 41 1.5
 21 22 1.5 23 1.0
 22 24 1.5
 23
 24 25 2.0 27 1.0
 25 26 1.5 28 1.0
 26 31 1.5
 27
 28
 29 30 1.0 31 2.0
 30
 31 32 1.0
 32
 33 34 2.0 37 1.0
 34 35 1.0 36 1.5
 35
 36 38 1.5
 37
 38 39 1.0 44 2.0
 39
 40 42 1.5 44 1.5
 41 42 2.0 46 1.0
 42 43 1.0
 43
 44 45 1.0
 45
 46


