%nprocshared=16
%mem=32GB
%chk=ovalene excited opt freq disp.chk
# opt=tight freq=(hpmodes,savenm) td=(nstates=6,root=1) b3lyp/6-311++g(2d,2p)
geom=connectivity empiricaldispersion=gd3bj

Ovalene excited state optimization+freq with dispersion correction

0 1
 C                  0.00000000    2.46123000    0.71142900
 C                  0.00000000    1.23522700    1.41859800
 C                  0.00000000    0.00000000    0.70722400
 C                  0.00000000    0.00000000   -0.70722400
 C                  0.00000000    1.23522700   -1.41859800
 C                  0.00000000    2.46123000   -0.71142900
 C                  0.00000000   -1.23522700    1.41859800
 C                  0.00000000   -1.23522700   -1.41859800
 C                  0.00000000   -2.46123000   -0.71142900
 C                  0.00000000   -2.46123000    0.71142900
 C                  0.00000000   -3.69819100   -1.42434700
 C                  0.00000000   -3.66866300   -2.83363500
 C                  0.00000000   -2.47822100   -3.52613600
 C                  0.00000000   -1.22974600   -2.84629600
 C                  0.00000000    0.00000000   -3.52561500
 C                  0.00000000    1.22974600   -2.84629600
 H                  0.00000000    0.00000000   -4.60849200
 H                  0.00000000   -4.60572300   -3.37517500
 H                  0.00000000   -2.48161900   -4.60802100
 C                  0.00000000    1.22974600    2.84629600
 C                  0.00000000    0.00000000    3.52561500
 C                  0.00000000   -1.22974600    2.84629600
 H                  0.00000000    0.00000000    4.60849200
 C                  0.00000000   -2.47822100    3.52613600
 C                  0.00000000   -3.66866300    2.83363500
 C                  0.00000000   -3.69819100    1.42434700
 H                  0.00000000   -2.48161900    4.60802100
 H                  0.00000000   -4.60572300    3.37517500
 C                  0.00000000   -4.92142300   -0.68092200
 H                  0.00000000   -5.85635100   -1.22577500
 C                  0.00000000   -4.92142300    0.68092200
 H                  0.00000000   -5.85635100    1.22577500
 C                  0.00000000    2.47822100   -3.52613600
 C                  0.00000000    3.66866300   -2.83363500
 H                  0.00000000    4.60572300   -3.37517500
 C                  0.00000000    3.69819100   -1.42434700
 H                  0.00000000    2.48161900   -4.60802100
 C                  0.00000000    4.92142300   -0.68092200
 H                  0.00000000    5.85635100   -1.22577500
 C                  0.00000000    3.69819100    1.42434700
 C                  0.00000000    2.47822100    3.52613600
 C                  0.00000000    3.66866300    2.83363500
 H                  0.00000000    4.60572300    3.37517500
 C                  0.00000000    4.92142300    0.68092200
 H                  0.00000000    5.85635100    1.22577500
 H                  0.00000000    2.48161900    4.60802100

 1 2 1.5 6 1.5 40 1.5
 2 3 1.5 20 1.5
 3 4 1.5 7 1.5
 4 5 1.5 8 1.5
 5 6 1.5 16 1.5
 6 36 1.5
 7 10 1.5 22 1.5
 8 9 1.5 14 1.5
 9 10 1.5 11 1.5
 10 26 1.5
 11 12 1.5 29 1.5
 12 13 2.0 18 1.0
 13 14 1.5 19 1.0
 14 15 1.5
 15 16 1.5 17 1.0
 16 33 1.5
 17
 18
 19
 20 21 1.5 41 1.5
 21 22 1.5 23 1.0
 22 24 1.5
 23
 24 25 2.0 27 1.0
 25 26 1.5 28 1.0
 26 31 1.5
 27
 28
 29 30 1.0 31 2.0
 30
 31 32 1.0
 32
 33 34 2.0 37 1.0
 34 35 1.0 36 1.5
 35
 36 38 1.5
 37
 38 39 1.0 44 2.0
 39
 40 42 1.5 44 1.5
 41 42 2.0 46 1.0
 42 43 1.0
 43
 44 45 1.0
 45
 46

