%chk=ovalene-excited.chk
%mem=10GB
%nprocshared=18
# freq=(savenormalmodes,hpmodes) td=(nstates=10,root=6)
b3lyp/6-311++g(2d,2p) geom=connectivity empiricaldispersion=gd3bj

Ovalene excited state optimization + freq with dispersion

0 1
 C                  0.00000000    2.45498000    0.71365900
 C                  0.00000000    1.22916400    1.42047900
 C                  0.00000000    0.00000000    0.71297800
 C                  0.00000000    0.00000000   -0.71297800
 C                  0.00000000    1.22916400   -1.42047900
 C                  0.00000000    2.45498000   -0.71365900
 C                  0.00000000   -1.22916400    1.42047900
 C                  0.00000000   -1.22916400   -1.42047900
 C                  0.00000000   -2.45498000   -0.71365900
 C                  0.00000000   -2.45498000    0.71365900
 C                  0.00000000   -3.69122200   -1.42284000
 C                  0.00000000   -3.66056600   -2.84798100
 C                  0.00000000   -2.47669500   -3.53503300
 C                  0.00000000   -1.22567900   -2.85640100
 C                  0.00000000    0.00000000   -3.53762700
 C                  0.00000000    1.22567900   -2.85640100
 H                  0.00000000    0.00000000   -4.61976600
 H                  0.00000000   -4.59953000   -3.38482400
 H                  0.00000000   -2.47699400   -4.61677000
 C                  0.00000000    1.22567900    2.85640100
 C                  0.00000000    0.00000000    3.53762700
 C                  0.00000000   -1.22567900    2.85640100
 H                  0.00000000    0.00000000    4.61976600
 C                  0.00000000   -2.47669500    3.53503300
 C                  0.00000000   -3.66056600    2.84798100
 C                  0.00000000   -3.69122200    1.42284000
 H                  0.00000000   -2.47699400    4.61677000
 H                  0.00000000   -4.59953000    3.38482400
 C                  0.00000000   -4.89568600   -0.69211500
 H                  0.00000000   -5.83345100   -1.23136200
 C                  0.00000000   -4.89568600    0.69211500
 H                  0.00000000   -5.83345100    1.23136200
 C                  0.00000000    2.47669500   -3.53503300
 C                  0.00000000    3.66056600   -2.84798100
 H                  0.00000000    4.59953000   -3.38482400
 C                  0.00000000    3.69122200   -1.42284000
 H                  0.00000000    2.47699400   -4.61677000
 C                  0.00000000    4.89568600   -0.69211500
 H                  0.00000000    5.83345100   -1.23136200
 C                  0.00000000    3.69122200    1.42284000
 C                  0.00000000    2.47669500    3.53503300
 C                  0.00000000    3.66056600    2.84798100
 H                  0.00000000    4.59953000    3.38482400
 C                  0.00000000    4.89568600    0.69211500
 H                  0.00000000    5.83345100    1.23136200
 H                  0.00000000    2.47699400    4.61677000

 1 2 1.5 6 1.5 40 1.5
 2 3 1.5 20 1.5
 3 4 1.5 7 1.5
 4 5 1.5 8 1.5
 5 6 1.5 16 1.5
 6 36 1.5
 7 10 1.5 22 1.5
 8 9 1.5 14 1.5
 9 10 1.5 11 1.5
 10 26 1.5
 11 12 1.5 29 1.5
 12 13 2.0 18 1.0
 13 14 1.5 19 1.0
 14 15 1.5
 15 16 1.5 17 1.0
 16 33 1.5
 17
 18
 19
 20 21 1.5 41 1.5
 21 22 1.5 23 1.0
 22 24 1.5
 23
 24 25 2.0 27 1.0
 25 26 1.5 28 1.0
 26 31 1.5
 27
 28
 29 30 1.0 31 2.0
 30
 31 32 1.0
 32
 33 34 2.0 37 1.0
 34 35 1.0 36 1.5
 35
 36 38 1.5
 37
 38 39 1.0 44 2.0
 39
 40 42 1.5 44 1.5
 41 42 2.0 46 1.0
 42 43 1.0
 43
 44 45 1.0
 45
 46

